Version 4
SHEET 1 880 680
WIRE 0 -16 -160 -16
WIRE 352 -16 0 -16
WIRE 528 -16 352 -16
WIRE 0 0 0 -16
WIRE 528 48 528 -16
WIRE 0 96 0 80
WIRE 64 96 0 96
WIRE 352 96 352 -16
WIRE 352 96 288 96
WIRE 0 160 0 96
WIRE 384 160 288 160
WIRE 528 160 528 112
WIRE 528 160 448 160
WIRE -160 208 -160 -16
WIRE 64 224 32 224
WIRE 320 224 288 224
WIRE 432 224 400 224
WIRE 0 288 0 224
WIRE 64 288 0 288
WIRE 352 288 288 288
WIRE 432 336 432 224
WIRE 32 384 32 224
WIRE 352 384 352 368
WIRE 352 384 32 384
WIRE 352 400 352 384
WIRE -160 480 -160 272
WIRE 0 480 0 288
WIRE 0 480 -160 480
WIRE 352 480 0 480
WIRE 432 480 432 400
WIRE 432 480 352 480
WIRE 528 480 528 160
WIRE 528 480 432 480
SYMBOL Misc\\DIP8 176 192 R0
WINDOW 0 3 -40 Center 2
WINDOW 3 1 -147 Center 2
SYMATTR InstName IC1
SYMATTR Value ATtiny13
SYMBOL Misc\\cell -160 208 R0
WINDOW 0 -72 -3 Left 2
WINDOW 3 -68 53 Left 2
SYMATTR InstName V1
SYMATTR Value 3.7 V
SYMBOL res 368 384 R180
WINDOW 0 36 76 Left 2
WINDOW 3 36 40 Left 2
SYMATTR InstName R1
SYMATTR Value 30 k
SYMBOL res 368 496 R180
WINDOW 0 36 76 Left 2
WINDOW 3 36 40 Left 2
SYMATTR InstName R2
SYMATTR Value 10 k
SYMBOL cap -16 160 R0
WINDOW 0 -37 16 Left 2
WINDOW 3 -65 56 Left 2
SYMATTR InstName C1
SYMATTR Value 100 nF
SYMBOL res -16 -16 R0
WINDOW 0 -56 50 Left 2
WINDOW 3 -60 85 Left 2
SYMATTR InstName R3
SYMATTR Value 10 k
SYMBOL res 416 208 R90
WINDOW 0 0 56 VBottom 2
WINDOW 3 32 56 VTop 2
SYMATTR InstName R4
SYMATTR Value 220
SYMBOL LED 416 336 R0
SYMATTR InstName D1
SYMATTR Value LED
SYMBOL cap 512 48 R0
SYMATTR InstName C2
SYMATTR Value 100 nF
SYMBOL Misc\\jumper 416 96 R0
SYMATTR InstName pushbutton
